LTspice 24.0.9 for Windows
Circuit: * C:\users\haaken\Mine dokumenter\highpass.asc
Start Time: Tue Mar 12 12:11:17 2024
solver = Normal
Maximum thread count: 16
tnom = 27
temp = 27
method = modified trap
.OP point found by inspection.
Total elapsed time: 0.054 seconds.

