LTspice 24.0.12 for Windows
Circuit: * C:\users\haaken\Documents\Dilexer\diplexer\highpass.asc
Start Time: Fri Oct 11 13:25:26 2024
solver = Normal
Maximum thread count: 24
tnom = 27
temp = 27
method = modified trap
.OP point found by inspection.
Total elapsed time: 0.073 seconds.

