LTspice 24.0.12 for Windows
Circuit: * C:\users\haaken\Documents\Dilexer\diplexer\highpass.asc
Start Time: Tue Oct 15 11:03:53 2024
solver = Normal
Maximum thread count: 24
tnom = 27
temp = 27
method = modified trap
.OP point found by inspection.
Total elapsed time: 0.091 seconds.

