LTspice 24.0.9 for Windows
Circuit: * C:\users\haaken\Mine dokumenter\lowpassfilter.asc
Start Time: Mon Mar 11 12:41:06 2024
solver = Normal
Maximum thread count: 16
tnom = 27
temp = 27
method = modified trap
.OP point found by inspection.
Total elapsed time: 0.053 seconds.

